/*--------------------------------*- C++ -*----------------------------------*\
| =========                 |                                                 |
| \\      /  F ield         | OpenFOAM: The Open Source CFD Toolbox           |
|  \\    /   O peration     | Version:  v2012                                 |
|   \\  /    A nd           | Website:  www.openfoam.com                      |
|    \\/     M anipulation  |                                                 |
\*---------------------------------------------------------------------------*/
FoamFile
{
    version     2.0;
    format      ascii;
    class       polyBoundaryMesh;
    location    "constant/polyMesh";
    object      boundary;
}
// * * * * * * * * * * * * * * * * * * * * * * * * * * * * * * * * * * * * * //

6
(
    bottom
    {
        type            patch;
        nFaces          250;
        startFace       34630;
    }
    top
    {
        type            patch;
        nFaces          250;
        startFace       34880;
    }
    inlet
    {
        type            patch;
        nFaces          70;
        startFace       35130;
    }
    outlet
    {
        type            patch;
        nFaces          70;
        startFace       35200;
    }
    airsurface
    {
        type            wall;
        inGroups        1(wall);
        nFaces          100;
        startFace       35270;
    }
    defaultFaces
    {
        type            empty;
        inGroups        1(empty);
        nFaces          35000;
        startFace       35370;
    }
)

// ************************************************************************* //
