FoamFile 
{ 
	version 2.0; 
	format ascii; 
	class dictionary; 
	object blockMeshDict; 
} 

scale 1;

vertices 
( 
	(1.000000 -3.000000 0.000000)
	(4.000000 -3.000000 0.000000)
	(4.000000 0.000000 0.000000)
	(1.000000 0.000000 0.000000)
	(1.000000 -3.000000 1.000000)
	(4.000000 -3.000000 1.000000)
	(4.000000 0.000000 1.000000)
	(1.000000 0.000000 1.000000)
	(4.000000 3.000000 0.000000)
	(1.000000 3.000000 0.000000)
	(4.000000 3.000000 1.000000)
	(1.000000 3.000000 1.000000)
	(0.975752 0.005092 0.000000)
	(0.975752 3.000000 0.000000)
	(0.975752 0.005092 1.000000)
	(0.975752 3.000000 1.000000)
	(0.905240 0.018910 0.000000)
	(0.905240 3.000000 0.000000)
	(0.905240 0.018910 1.000000)
	(0.905240 3.000000 1.000000)
	(0.795047 0.037760 0.000000)
	(0.795047 3.000000 0.000000)
	(0.795047 0.037760 1.000000)
	(0.795047 3.000000 1.000000)
	(0.655659 0.057071 0.000000)
	(0.655659 3.000000 0.000000)
	(0.655659 0.057071 1.000000)
	(0.655659 3.000000 1.000000)
	(0.500587 0.072303 0.000000)
	(0.500587 3.000000 0.000000)
	(0.500587 0.072303 1.000000)
	(0.500587 3.000000 1.000000)
	(0.344680 0.079180 0.000000)
	(0.344680 3.000000 0.000000)
	(0.344680 0.079180 1.000000)
	(0.344680 3.000000 1.000000)
	(0.203313 0.072945 0.000000)
	(0.203313 3.000000 0.000000)
	(0.203313 0.072945 1.000000)
	(0.203313 3.000000 1.000000)
	(0.091996 0.054325 0.000000)
	(0.091996 3.000000 0.000000)
	(0.091996 0.054325 1.000000)
	(0.091996 3.000000 1.000000)
	(0.022051 0.028152 0.000000)
	(0.022051 3.000000 0.000000)
	(0.022051 0.028152 1.000000)
	(0.022051 3.000000 1.000000)
	(0.000000 0.000000 0.000000)
	(0.000000 3.000000 0.000000)
	(0.000000 0.000000 1.000000)
	(0.000000 3.000000 1.000000)
	(-3.000000 0.000000 0.000000)
	(-3.000000 3.000000 0.000000)
	(-3.000000 0.000000 1.000000)
	(-3.000000 3.000000 1.000000)
	(-3.000000 -3.000000 0.000000)
	(0.000000 -3.000000 0.000000)
	(-3.000000 -3.000000 1.000000)
	(0.000000 -3.000000 1.000000)
	(0.026892 -3.000000 0.000000)
	(0.026892 -0.023408 0.000000)
	(0.026892 -3.000000 1.000000)
	(0.026892 -0.023408 1.000000)
	(0.098987 -3.000000 0.000000)
	(0.098987 -0.037507 0.000000)
	(0.098987 -3.000000 1.000000)
	(0.098987 -0.037507 1.000000)
	(0.208902 -3.000000 0.000000)
	(0.208902 -0.042343 0.000000)
	(0.208902 -3.000000 1.000000)
	(0.208902 -0.042343 1.000000)
	(0.346303 -3.000000 0.000000)
	(0.346303 -0.039923 0.000000)
	(0.346303 -3.000000 1.000000)
	(0.346303 -0.039923 1.000000)
	(0.499413 -3.000000 0.000000)
	(0.499413 -0.033414 0.000000)
	(0.499413 -3.000000 1.000000)
	(0.499413 -0.033414 1.000000)
	(0.653358 -3.000000 0.000000)
	(0.653358 -0.024269 0.000000)
	(0.653358 -3.000000 1.000000)
	(0.653358 -0.024269 1.000000)
	(0.792738 -3.000000 0.000000)
	(0.792738 -0.014999 0.000000)
	(0.792738 -3.000000 1.000000)
	(0.792738 -0.014999 1.000000)
	(0.903777 -3.000000 0.000000)
	(0.903777 -0.007191 0.000000)
	(0.903777 -3.000000 1.000000)
	(0.903777 -0.007191 1.000000)
	(0.975305 -3.000000 0.000000)
	(0.975305 -0.001896 0.000000)
	(0.975305 -3.000000 1.000000)
	(0.975305 -0.001896 1.000000)
);

blocks 
( 
	// 1 hexBLOCK 
	hex (0 1 2 3 4 5 6 7) (100 35 1) simpleGrading (1.000000 1.000000 1.000000) 
	// 2 hexBLOCK 
	hex (3 2 8 9 7 6 10 11) (100 35 1) simpleGrading (1.000000 1.000000 1.000000) 
	// 3 hexBLOCK 
	hex (12 3 9 13 14 7 11 15) (5 35 1) simpleGrading (1.000000 1.000000 1.000000) 
	// 4 hexBLOCK 
	hex (16 12 13 17 18 14 15 19) (5 35 1) simpleGrading (1.000000 1.000000 1.000000) 
	// 5 hexBLOCK 
	hex (20 16 17 21 22 18 19 23) (5 35 1) simpleGrading (1.000000 1.000000 1.000000) 
	// 6 hexBLOCK 
	hex (24 20 21 25 26 22 23 27) (5 35 1) simpleGrading (1.000000 1.000000 1.000000) 
	// 7 hexBLOCK 
	hex (28 24 25 29 30 26 27 31) (5 35 1) simpleGrading (1.000000 1.000000 1.000000) 
	// 8 hexBLOCK 
	hex (32 28 29 33 34 30 31 35) (5 35 1) simpleGrading (1.000000 1.000000 1.000000) 
	// 9 hexBLOCK 
	hex (36 32 33 37 38 34 35 39) (5 35 1) simpleGrading (1.000000 1.000000 1.000000) 
	// 10 hexBLOCK 
	hex (40 36 37 41 42 38 39 43) (5 35 1) simpleGrading (1.000000 1.000000 1.000000) 
	// 11 hexBLOCK 
	hex (44 40 41 45 46 42 43 47) (5 35 1) simpleGrading (1.000000 1.000000 1.000000) 
	// 12 hexBLOCK 
	hex (48 44 45 49 50 46 47 51) (5 35 1) simpleGrading (1.000000 1.000000 1.000000) 
	// 13 hexBLOCK 
	hex (52 48 49 53 54 50 51 55) (100 35 1) simpleGrading (1.000000 1.000000 1.000000) 
	// 14 hexBLOCK 
	hex (56 57 48 52 58 59 50 54) (100 35 1) simpleGrading (1.000000 1.000000 1.000000) 
	// 15 hexBLOCK 
	hex (57 60 61 48 59 62 63 50) (5 35 1) simpleGrading (1.000000 1.000000 1.000000) 
	// 16 hexBLOCK 
	hex (60 64 65 61 62 66 67 63) (5 35 1) simpleGrading (1.000000 1.000000 1.000000) 
	// 17 hexBLOCK 
	hex (64 68 69 65 66 70 71 67) (5 35 1) simpleGrading (1.000000 1.000000 1.000000) 
	// 18 hexBLOCK 
	hex (68 72 73 69 70 74 75 71) (5 35 1) simpleGrading (1.000000 1.000000 1.000000) 
	// 19 hexBLOCK 
	hex (72 76 77 73 74 78 79 75) (5 35 1) simpleGrading (1.000000 1.000000 1.000000) 
	// 20 hexBLOCK 
	hex (76 80 81 77 78 82 83 79) (5 35 1) simpleGrading (1.000000 1.000000 1.000000) 
	// 21 hexBLOCK 
	hex (80 84 85 81 82 86 87 83) (5 35 1) simpleGrading (1.000000 1.000000 1.000000) 
	// 22 hexBLOCK 
	hex (84 88 89 85 86 90 91 87) (5 35 1) simpleGrading (1.000000 1.000000 1.000000) 
	// 23 hexBLOCK 
	hex (88 92 93 89 90 94 95 91) (5 35 1) simpleGrading (1.000000 1.000000 1.000000) 
	// 24 hexBLOCK 
	hex (92 0 3 93 94 4 7 95) (5 35 1) simpleGrading (1.000000 1.000000 1.000000) 
);

edges 
( 

);

boundary
(
	bottom 
	{ 
		type patch; 
		faces 
		(
			// block 14 LOWER part
			(56 57 59 58)
			// block 15 LOWER part
			(57 60 62 59)
			// block 16 LOWER part
			(60 64 66 62)
			// block 17 LOWER part
			(64 68 70 66)
			// block 18 LOWER part
			(68 72 74 70)
			// block 19 LOWER part
			(72 76 78 74)
			// block 20 LOWER part
			(76 80 82 78)
			// block 21 LOWER part
			(80 84 86 82)
			// block 22 LOWER part
			(84 88 90 86)
			// block 23 LOWER part
			(88 92 94 90)
			// block 24 LOWER part
			(92 0 4 94)
			// block 1 LOWER part
			(0 1 5 4)
		); 
	}
	top 
	{ 
		type patch; 
		faces 
		(
			// block 2 UPPER part
			(9 8 10 11)
			// block 3 UPPER part
			(13 9 11 15)
			// block 4 UPPER part
			(17 13 15 19)
			// block 5 UPPER part
			(21 17 19 23)
			// block 6 UPPER part
			(25 21 23 27)
			// block 7 UPPER part
			(29 25 27 31)
			// block 8 UPPER part
			(33 29 31 35)
			// block 9 UPPER part
			(37 33 35 39)
			// block 10 UPPER part
			(41 37 39 43)
			// block 11 UPPER part
			(45 41 43 47)
			// block 12 UPPER part
			(49 45 47 51)
			// block 13 UPPER part
			(53 49 51 55)
		); 
	}
	inlet 
	{ 
		type patch; 
		faces 
		(
			// UPPER block
			(52 53 55 54)
			// LOWER block
			(56 52 54 58)
		); 
	}
	outlet 
	{ 
		type patch; 
		faces 
		(
			// UPPER block
			(2 6 10 8)
			// LOWER block
			(1 5 6 2)
		); 
	}
	airsurface 
	{ 
		type wall; 
		faces 
		(
			// block 3 UPPER part
			(12 3 7 14)
			// block 4 UPPER part
			(16 12 14 18)
			// block 5 UPPER part
			(20 16 18 22)
			// block 6 UPPER part
			(24 20 22 26)
			// block 7 UPPER part
			(28 24 26 30)
			// block 8 UPPER part
			(32 28 30 34)
			// block 9 UPPER part
			(36 32 34 38)
			// block 10 UPPER part
			(40 36 38 42)
			// block 11 UPPER part
			(44 40 42 46)
			// block 12 UPPER part
			(48 44 46 50)
			// block 15 LOWER part
			(48 61 63 50)
			// block 16 LOWER part
			(61 65 67 63)
			// block 17 LOWER part
			(65 69 71 67)
			// block 18 LOWER part
			(69 73 75 71)
			// block 19 LOWER part
			(73 77 79 75)
			// block 20 LOWER part
			(77 81 83 79)
			// block 21 LOWER part
			(81 85 87 83)
			// block 22 LOWER part
			(85 89 91 87)
			// block 23 LOWER part
			(89 93 95 91)
			// block 24 LOWER part
			(93 3 7 95)
		); 
	}
);