FoamFile
{
    version     2.0;
    format      ascii;
    class       volScalarField;
    object      p;
}


dimensions      [0 2 -2 0 0 0 0];

internalField   uniform 1;

boundaryField
{
    inlet
    {
        type            zeroGradient;
    }

    outlet
    {
        type            fixedValue;
        value           uniform 1;
    }

    top
    {
        type            zeroGradient;
    }

    bottom 
    {
        type            zeroGradient;
    }
    
    airsurface
    {
        type            zeroGradient;
    }

    defaultFaces
    {
        type            empty;
    }
}
